matpower-example/bus-data.out
================================================================================
|     Bus Data                                                                 |
================================================================================
 Bus      Voltage          Generation             Load          Lambda($/MVA-hr)
  #   Mag(pu) Ang(deg)   P (MW)   Q (MVAr)   P (MW)   Q (MVAr)     P        Q
----- ------- --------  --------  --------  --------  --------  -------  -------
  101  1.047   -8.575    168.00     10.21    108.00     22.00    37.993     -
  102  1.047   -8.635    168.00      5.14     97.00     20.00    38.008     -
  103  1.011   -7.980       -         -      180.00     37.00    38.083   0.514
  104  1.017  -10.745       -         -       74.00     15.00    38.938   0.265
  105  1.035  -10.928       -         -       71.00     14.00    38.766   0.047
  106  1.032  -13.158       -         -      136.00     28.00    39.401  -0.034
  107  1.050   -3.989    355.00     49.51    125.00     25.00    36.258     -
  108  1.017   -9.343       -         -      171.00     35.00    38.279   0.322
  109  1.027   -8.460       -         -      175.00     36.00    38.194   0.183
  110  1.050  -10.203       -         -      195.00     40.00    38.406  -0.132
  111  1.027   -4.083       -         -         -         -      38.166   0.072
  112  1.020   -2.396       -         -         -         -      38.056   0.123
  113  1.035    0.000*   220.00     76.00    265.00     54.00    37.615   0.072
  114  1.044   -2.552      0.00    103.32    194.00     39.00    37.833     -
  115  1.043    5.977    165.00     92.00    317.00     64.00    36.759   0.074
  116  1.046    5.824    155.00     80.00    100.00     20.00    36.787   0.037
  117  1.048    9.138       -         -         -         -      36.282   0.021
  118  1.050    9.952    355.00     68.43    333.00     68.00    36.125     -
  119  1.040    5.368       -         -      181.00     37.00    36.847   0.066
  120  1.044    6.847       -         -      128.00     26.00    36.585   0.039
  121  1.050   10.564    400.00    -21.87       -         -      36.030     -
  122  1.050   16.516    300.00    -40.76       -         -      35.048     -
  123  1.050    8.378    670.00     25.07       -         -      36.302     -
  124  1.013    0.844       -         -         -         -      37.711   0.375
  201  1.050  -12.611    142.00     21.74    108.00     22.00    38.726     -
  202  1.050  -12.651    168.00     14.28     97.00     20.00    38.733     -
  203  1.019   -9.121       -         -      180.00     37.00    37.994   0.554
  204  1.015  -14.429       -         -       74.00     15.00    39.644   0.486
  205  1.033  -14.929       -         -       71.00     14.00    39.522   0.322
  206  1.028  -17.155       -         -      136.00     28.00    40.216   0.406
  207  0.970  -22.392    110.00     38.00    125.00     25.00    43.024   1.226
  208  0.964  -21.696       -         -      171.00     35.00    42.776   1.447
  209  1.020  -11.846       -         -      175.00     36.00    38.816   0.575
  210  1.043  -14.163       -         -      195.00     40.00    39.138   0.418
  211  1.028   -5.950       -         -         -         -      38.589   0.263
  212  1.018   -4.164       -         -         -         -      38.481   0.375
  213  1.050   -0.390    465.00    154.25    265.00     54.00    37.701     -
  214  1.050   -4.129      0.00    125.28    194.00     39.00    38.111     -
  215  1.044    4.742    260.00     86.00    317.00     64.00    36.871   0.081
  216  1.047    4.679    155.00     80.00    100.00     20.00    36.918   0.041
  217  1.049    8.086       -         -         -         -      36.381   0.015
  218  1.050    8.906    355.00     60.30    333.00     68.00    36.221     -
  219  1.040    4.449       -         -      181.00     37.00    36.962   0.070
  220  1.044    6.123       -         -      128.00     26.00    36.687   0.041
  221  1.050    9.516    296.97     -7.52       -         -      36.124     -
  222  1.050   15.467    300.00    -41.84       -         -      35.141     -
  223  1.050    7.761    726.00      0.68       -         -      36.395     -
  224  1.017   -0.386       -         -         -         -      37.747   0.376
  301  1.050  -23.504    104.00     48.97    108.00     22.00    41.136     -
  302  1.050  -23.570    126.00     34.30     97.00     20.00    41.155     -
  303  0.998  -17.733       -         -      180.00     37.00    39.520   1.271
  304  1.007  -23.757       -         -       74.00     15.00    41.613   0.819
  305  1.028  -24.499       -         -       71.00     14.00    41.557   0.585
  306  1.020  -26.020       -         -      136.00     28.00    42.062   0.835
  307  0.957  -30.662    110.00     38.00    125.00     25.00    44.973   1.882
  308  0.951  -29.947       -         -      171.00     35.00    44.694   2.129
  309  1.007  -19.748       -         -      175.00     36.00    40.216   1.131
  310  1.032  -22.314       -         -      195.00     40.00    40.655   0.943
  311  1.018  -12.834       -         -         -         -      39.846   0.633
  312  1.003  -11.045       -         -         -         -      39.743   0.880
  313  1.035   -7.624    355.00    150.00    265.00     54.00    38.960   0.510
  314  1.050   -9.655      0.00    166.63    194.00     39.00    39.035     -
  315  1.042    1.503    190.00    128.00    317.00     64.00    37.464   0.171
  316  1.045    1.162    155.00     80.00    100.00     20.00    37.537   0.107
  317  1.047    5.119       -         -         -         -      36.906   0.051
  318  1.050    6.217    355.00     63.12    333.00     68.00    36.684     -
  319  1.039    0.850       -         -      181.00     37.00    37.550   0.110
  320  1.044    2.456       -         -      128.00     26.00    37.240   0.056
  321  1.050    6.905    355.00     -3.34       -         -      36.578     -
  322  1.050   12.932    310.00    -39.98       -         -      35.568     -
  323  1.050    4.057    710.00     74.82       -         -      36.928     -
  324  0.999   -5.501       -         -         -         -      38.831   0.831
  325  1.049    4.598       -         -         -         -      36.932  -0.005
                        --------  --------  --------  --------
               Total:   8703.97   1718.74   8550.00   1740.00
